222

                 C         2.7315     -2.3782     -9.9674
                 C        -3.4253      1.1764     -9.9674
                 C         2.7315      2.3782     -9.9674
                 C         0.6938      3.5546     -9.9674
                 C         2.9485      0.0000    -11.4535
                 C         2.3178      1.1607    -12.0459
                 C         3.3855      0.0000    -10.0904
                 C         2.1804      2.3197    -11.2902
                 C         0.9187      3.0482    -11.2902
                 C         1.2300      0.7240    -12.9094
                 C         0.0120      1.4272    -12.9094
                 C        -0.1537      2.5876    -12.0459
                 C         2.1804     -2.3197    -11.2902
                 C         2.3178     -1.1607    -12.0459
                 C         1.2300     -0.7240    -12.9094
                 C         0.9187     -3.0482    -11.2902
                 C        -0.1537     -2.5876    -12.0459
                 C         0.0120     -1.4272    -12.9094
                 C         0.6938     -3.5546     -9.9674
                 C        -3.4253     -1.1764     -9.9674
                 C        -2.1641     -1.4269    -12.0459
                 C        -1.4743     -2.5535    -11.4535
                 C        -1.6927     -2.9319    -10.0904
                 C        -3.0992     -0.7284    -11.2902
                 C        -2.1641      1.4269    -12.0459
                 C        -1.2420      0.7032    -12.9094
                 C        -1.2420     -0.7032    -12.9094
                 C        -3.0992      0.7284    -11.2902
                 C        -1.6927      2.9319    -10.0904
                 C        -1.4743      2.5535    -11.4535
                 C          2.7315     -2.3782      9.9674
                 C        -3.4253      1.1764      9.9674
                 C         2.7315      2.3782      9.9674
                 C         0.6938      3.5546      9.9674
                 C         2.9485      0.0000     11.4535
                 C         2.3178      1.1607     12.0459
                 C         3.3855      0.0000     10.0904
                 C         2.1804      2.3197     11.2902
                 C         0.9187      3.0482     11.2902
                 C         1.2300      0.7240     12.9094
                 C         0.0120      1.4272     12.9094
                 C        -0.1537      2.5876     12.0459
                 C         2.1804     -2.3197     11.2902
                 C         2.3178     -1.1607     12.0459
                 C         1.2300     -0.7240     12.9094
                 C         0.9187     -3.0482     11.2902
                 C        -0.1537     -2.5876     12.0459
                 C         0.0120     -1.4272     12.9094
                 C         0.6938     -3.5546      9.9674
                 C        -3.4253     -1.1764      9.9674
                 C        -2.1641     -1.4269     12.0459
                 C        -1.4743     -2.5535     11.4535
                 C        -1.6927     -2.9319     10.0904
                 C        -3.0992     -0.7284     11.2902
                 C        -2.1641      1.4269     12.0459
                 C        -1.2420      0.7032     12.9094
                 C        -1.2420     -0.7032     12.9094
                 C        -3.0992      0.7284     11.2902
                 C        -1.6927      2.9319     10.0904
                 C        -1.4743      2.5535     11.4535
                 C         1.8732     -3.2444      9.1906
                 C         3.3183     -1.2479      9.3363
                 C         3.3183      1.2479      9.3363
                 C         1.8732      3.2444      9.1906
                 C        -0.5784      3.4977      9.3363
                 C        -2.7399      2.2498      9.3363
                 C        -3.7463      0.0000      9.1906
                 C        -2.7399     -2.2498      9.3363
                 C        -0.5784     -3.4977      9.3363
                 C         1.8434     -3.1928      7.8058
                 C         2.7755     -2.3177      7.1337
                 C         3.3721     -1.2397      7.8860
                 C         3.5795      0.0000      7.1710
                 C         3.3721      1.2397      7.8860
                 C         2.7755      2.3177      7.1337
                 C         1.8434      3.1928      7.8058
                 C        0.6195      3.5625      7.1337
                 C        -0.6124      3.5401      7.8860
                 C        -1.7897      3.0999      7.1710
                 C       -2.7596      2.3004      7.8860
                 C        -3.3949      1.2448      7.1337
                 C        -3.6867      0.0000      7.8058
                 C        -3.3949     -1.2448      7.1337
                 C        -2.7596     -2.3004      7.8860
                 C        -1.7897     -3.0999      7.1710
                 C        -0.6124     -3.5401      7.8860
                 C         0.6195     -3.5625      7.1337
                 C         1.7946     -3.1083      4.9957
                 C         2.7555     -2.3001      5.7105
                 C         3.3710     -1.2219      5.0035
                 C         3.5878      0.0000      5.7370
                 C         3.3710      1.2219      5.0035
                 C         2.7555      2.3001      5.7105
                 C         1.7946      3.1083      4.9957
                 C         0.6142      3.5364      5.7105
                 C        -0.6273      3.5303      5.0035
                 C        -1.7939      3.1072      5.7370
                 C        -2.7437      2.3084      5.0035
                 C        -3.3697      1.2363      5.7105
                 C        -3.5891      0.0000      4.9957
                 C        -3.3697     -1.2363      5.7105
                 C        -2.7437     -2.3084      5.0035
                 C        -1.7939     -3.1072      5.7370
                 C        -0.6273     -3.5303      5.0035
                 C         0.6142     -3.5364      5.7105
                 C         1.7931     -3.1057      3.5771
                 C         2.7479     -2.3001      2.8585
                 C         3.3711     -1.2243      3.5735
                 C        3.5937      0.0000      2.8534
                 C         3.3711      1.2243      3.5735
                 C        2.7479      2.3001      2.8585
                 C        1.7931      3.1057      3.5771
                 C         0.6180      3.5298      2.8585
                 C        -0.6253      3.5316      3.5735
                 C        -1.7968      3.1122      2.8534
                 C        -2.7458      2.3073      3.5735
                 C        -3.3659      1.2297      2.8585
                 C        -3.5862      0.0000      3.5771
                 C       -3.3659     -1.2297      2.8585
                 C        -2.7458     -2.3073      3.5735
                 C      -1.7968     -3.1122      2.8534
                 C      -0.6253     -3.5316      3.5735
                 C       0.6180     -3.5298      2.8585
                 C       1.7946     -3.1083      0.7111
                 C       2.7482     -2.3025      1.4307
                 C       3.3701     -1.2279      0.7140
                 C      3.5925      0.0000      1.4308
                 C      3.3701      1.2279      0.7140
                 C       2.7482      2.3025      1.4307
                 C     1.7946      3.1083      0.7111
                 C        0.6199      3.5313      1.4307
                 C      -0.6217      3.5325      0.7140
                 C      -1.7963      3.1112      1.4308
                 C      -2.7484      2.3047      0.7140
                 C      -3.3682      1.2288      1.4307
                 C      -3.5892      0.0000      0.7111
                 C      -3.3682     -1.2288      1.4307
                 C      -2.7484     -2.3047      0.7140
                 C      -1.7963     -3.1112      1.4308
                 C      -0.6217     -3.5325      0.7140
                 C       0.6199     -3.5313      1.4307
                 C       1.7946     -3.1083     -0.7111
                 C        2.7482     -2.3025     -1.4307
                 C         3.3701     -1.2279     -0.7140
                 C         3.5925      0.0000     -1.4308
                 C        3.3701      1.2279     -0.7140
                 C         2.7482      2.3025     -1.4307
                 C         1.7946      3.1083     -0.7111
                 C     0.6199      3.5313     -1.4307
                 C        -0.6217      3.5325     -0.7140
                 C        -1.7963      3.1112     -1.4308
                 C       -2.7484      2.3047     -0.7140
                 C       -3.3682      1.2288     -1.4307
                 C      -3.5892      0.0000     -0.7111
                 C      -3.3682     -1.2288     -1.4307
                 C      -2.7484     -2.3047     -0.7140
                 C      -1.7963     -3.1112     -1.4308
                 C      -0.6217     -3.5325     -0.7140
                 C      0.6199     -3.5313     -1.4307
                 C      1.7931     -3.1057     -3.5771
                 C      2.7479     -2.3001     -2.8585
                 C      3.3711     -1.2243     -3.5735
                 C       3.5937      0.0000     -2.8534
                 C      3.3711      1.2243     -3.5735
                 C      2.7479      2.3001     -2.8585
                 C       1.7931      3.1057     -3.5771
                 C       0.6180      3.5298     -2.8585
                 C     -0.6253      3.5316     -3.5735
                 C        -1.7968      3.1122     -2.8534
                 C      -2.7458      2.3073     -3.5735
                 C       -3.3659      1.2297     -2.8585
                 C     -3.5862      0.0000     -3.5771
                 C        -3.3659     -1.2297     -2.8585
                 C       -2.7458     -2.3073     -3.5735
                 C      -1.7968     -3.1122     -2.8534
                 C        -0.6253     -3.5316     -3.5735
                 C        0.6180     -3.5298     -2.8585
                 C         1.7946     -3.1083     -4.9957
                 C       2.7555     -2.3001     -5.7105
                 C        3.3710     -1.2219     -5.0035
                 C       3.5878      0.0000     -5.7370
                 C        3.3710      1.2219     -5.0035
                 C        2.7555      2.3001     -5.7105
                 C       1.7946      3.1083     -4.9957
                 C       0.6142      3.5364     -5.7105
                 C      -0.6273      3.5303     -5.0035
                 C      -1.7939      3.1072     -5.7370
                 C     -2.7437      2.3084     -5.0035
                 C    -3.3697      1.2363     -5.7105
                 C     -3.5891      0.0000     -4.9957
                 C    -3.3697     -1.2363     -5.7105
                 C       -2.7437     -2.3084     -5.0035
                 C      -1.7939     -3.1072     -5.7370
                 C       -0.6273     -3.5303     -5.0035
                 C        0.6142     -3.5364     -5.7105
                 C       1.8434     -3.1928     -7.8058
                 C      2.7755     -2.3177     -7.1337
                 C      3.3721     -1.2397     -7.8860
                 C      3.5795      0.0000     -7.1710
                 C       3.3721      1.2397     -7.8860
                 C       2.7755      2.3177     -7.1337
                 C       1.8434      3.1928     -7.8058
                 C        0.6195      3.5625     -7.1337
                 C      -0.6124      3.5401     -7.8860
                 C      -1.7897      3.0999     -7.1710
                 C       -2.7596      2.3004     -7.8860
                 C        -3.3949      1.2448     -7.1337
                 C       -3.6867      0.0000     -7.8058
                 C       -3.3949     -1.2448     -7.1337
                 C      -2.7596     -2.3004     -7.8860
                 C      -1.7897     -3.0999     -7.1710
                 C      -0.6124     -3.5401     -7.8860
                 C      0.6195     -3.5625     -7.1337
                 C       1.8732     -3.2444     -9.1906
                 C      3.3183     -1.2479     -9.3363
                 C       3.3183      1.2479     -9.3363
                 C       1.8732      3.2444     -9.1906
                 C     -0.5784      3.4977     -9.3363
                 C       -2.7399      2.2498     -9.3363
                 C       -3.7463      0.0000     -9.1906
                 C      -2.7399     -2.2498     -9.3363
                 C      -0.5784     -3.4977     -9.3363
