Created with the Wolfram Language : www.wolfram.com
     WL             3D

 32 31  0  0  0  0  0  0  0  0999 V2000
    0.0000    0.0000   -0.0083 Ce  0  0  0  0  0  7  0  0  0  0  0  0
   -2.7064    0.0000    0.6892 C   0  0  0  0  0  3  0  0  0  0  0  0
   -2.5390   -1.1400   -0.1216 C   0  0  0  0  0  0  0  0  0  0  0  0
   -2.5390    1.1400   -0.1216 C   0  0  0  0  0  0  0  0  0  0  0  0
   -2.2894   -0.7032   -1.4471 C   0  0  0  0  0  3  0  0  0  0  0  0
   -2.2894    0.7032   -1.4471 C   0  0  0  0  0  3  0  0  0  0  0  0
    1.3532    2.3438    0.6892 C   0  0  0  0  0  3  0  0  0  0  0  0
    1.3532   -2.3438    0.6892 C   0  0  0  0  0  3  0  0  0  0  0  0
    2.2568    1.6288   -0.1216 C   0  0  2  0  0  0  0  0  0  0  0  0
    2.2568   -1.6288   -0.1216 C   0  0  1  0  0  0  0  0  0  0  0  0
    1.7536    1.6311   -1.4471 C   0  0  0  0  0  3  0  0  0  0  0  0
    1.7536   -1.6311   -1.4471 C   0  0  0  0  0  3  0  0  0  0  0  0
    0.5357    2.3342   -1.4471 C   0  0  0  0  0  3  0  0  0  0  0  0
    0.5357   -2.3342   -1.4471 C   0  0  0  0  0  3  0  0  0  0  0  0
    0.2822    2.7689   -0.1216 C   0  0  1  0  0  0  0  0  0  0  0  0
    0.2822   -2.7689   -0.1216 C   0  0  2  0  0  0  0  0  0  0  0  0
   -2.8959    0.0000    1.7497 H   0  0  0  0  0  0  0  0  0  0  0  0
   -2.6253   -2.1631    0.2052 H   0  0  0  0  0  0  0  0  0  0  0  0
   -2.6253    2.1631    0.2052 H   0  0  0  0  0  0  0  0  0  0  0  0
   -2.1607   -1.3349   -2.3109 H   0  0  0  0  0  0  0  0  0  0  0  0
   -2.1607    1.3349   -2.3109 H   0  0  0  0  0  0  0  0  0  0  0  0
    1.4479    2.5079    1.7497 H   0  0  0  0  0  0  0  0  0  0  0  0
    1.4479   -2.5079    1.7497 H   0  0  0  0  0  0  0  0  0  0  0  0
    3.1860    1.1921    0.2052 H   0  0  0  0  0  0  0  0  0  0  0  0
    3.1860   -1.1921    0.2052 H   0  0  0  0  0  0  0  0  0  0  0  0
    2.2364    1.2038   -2.3109 H   0  0  0  0  0  0  0  0  0  0  0  0
    2.2364   -1.2038   -2.3109 H   0  0  0  0  0  0  0  0  0  0  0  0
   -0.0757    2.5387   -2.3109 H   0  0  0  0  0  0  0  0  0  0  0  0
   -0.0757   -2.5387   -2.3109 H   0  0  0  0  0  0  0  0  0  0  0  0
   -0.5607    3.3552    0.2052 H   0  0  0  0  0  0  0  0  0  0  0  0
   -0.5607   -3.3552    0.2052 H   0  0  0  0  0  0  0  0  0  0  0  0
    0.0000    0.0000    2.5938 Cl  0  0  0  0  0  0  0  0  0  0  0  0
  3  2  1  0
  2  4  1  0
  4  6  1  0
  6  5  1  0
  5 20  1  0
  6 21  1  0
  4 19  1  0
  2 17  1  0
  3 18  1  0
  9  7  1  0
  7 15  1  0
 15 13  1  0
 13 11  1  0
 11 26  1  0
 13 28  1  0
 15 30  1  6
  7 22  1  0
  9 24  1  6
 10  8  1  0
  8 16  1  0
 16 14  1  0
 14 12  1  0
 12 27  1  0
 14 29  1  0
 16 31  1  6
  8 23  1  0
 10 25  1  6
  1 32  1  0
 12 10  1  0
  5  3  1  0
 11  9  1  0
M  RAD  8   2   2   5   2   6   2   7   2   8   2  11   2  12   2  13   2
M  RAD  1  14   2
M  END
